packages/bdgd2opendss/bdgd2opendss-1.0.0.tar.gz/bdgd2opendss-1.0.0/tests/dss_models_output/sub__SE001/17_SE001_1/RamaisBT_202312598_17_SE001_1_------1-----.dss
New "Line.RBT_1727685" phases=2 bus1="UC1727685.3.4" bus2="BT476301.3.4" linecode="50_2" length=0.008000000 units=km
New "Line.RBT_1728125" phases=2 bus1="UC1728125.3.4" bus2="BT606561.3.4" linecode="50_2" length=0.017000000 units=km
New "Line.RBT_1728111" phases=2 bus1="UC1728111.1.4" bus2="BT255521.1.4" linecode="50_2" length=0.011000000 units=km
New "Line.RBT_1727806" phases=2 bus1="UC1727806.3.4" bus2="BT278601.3.4" linecode="50_2" length=0.008470000 units=km
New "Line.RBT_1728131" phases=2 bus1="UC1728131.1.4" bus2="BT219611.1.4" linecode="108_2" length=0.023000000 units=km
New "Line.RBT_1728130" phases=2 bus1="UC1728130.2.4" bus2="BT255571.2.4" linecode="50_2" length=0.010240000 units=km
New "Line.RBT_1728096" phases=2 bus1="UC1728096.2.4" bus2="BT606591.2.4" linecode="105_2" length=0.016000000 units=km
New "Line.RBT_1728095" phases=2 bus1="UC1728095.2.4" bus2="BT362901.2.4" linecode="50_2" length=0.022000000 units=km
New "Line.RBT_1727700" phases=2 bus1="UC1727700.1.4" bus2="BT606571.1.4" linecode="50_2" length=0.004000000 units=km
New "Line.RBT_1728015" phases=2 bus1="UC1728015.2.4" bus2="BT606581.2.4" linecode="105_2" length=0.004000000 units=km
New "Line.RBT_1728016" phases=2 bus1="UC1728016.3.4" bus2="BT606581.3.4" linecode="50_2" length=0.002000000 units=km
New "Line.RBT_1727796" phases=2 bus1="UC1727796.3.4" bus2="BT297551.3.4" linecode="105_2" length=0.014000000 units=km
New "Line.RBT_1727697" phases=2 bus1="UC1727697.2.4" bus2="ET17_2121.2.4" linecode="105_2" length=0.005000000 units=km
New "Line.RBT_1727698" phases=2 bus1="UC1727698.1.4" bus2="BT606551.1.4" linecode="50_2" length=0.013000000 units=km
New "Line.RBT_1727679" phases=2 bus1="UC1727679.2.4" bus2="BT267811.2.4" linecode="50_2" length=0.029000000 units=km
New "Line.RBT_1727022" phases=4 bus1="UC1727022.1.2.3.4" bus2="BT273021.1.2.3.4" linecode="51_4" length=0.021000000 units=km
New "Line.RBT_1727540" phases=2 bus1="UC1727540.3.4" bus2="BT297631.3.4" linecode="108_2" length=0.015000000 units=km
New "Line.RBT_1727546" phases=4 bus1="UC1727546.1.2.3.4" bus2="ET17_4309.1.2.3.4" linecode="51_4" length=0.008400000 units=km
New "Line.RBT_1727536" phases=2 bus1="UC1727536.2.4" bus2="BT278551.2.4" linecode="50_2" length=0.002000000 units=km
New "Line.RBT_1727545" phases=2 bus1="UC1727545.3.4" bus2="BT298471.3.4" linecode="108_2" length=0.008000000 units=km
New "Line.RBT_1727544" phases=2 bus1="UC1727544.2.4" bus2="BT476361.2.4" linecode="50_2" length=0.003000000 units=km
New "Line.RBT_1727676" phases=2 bus1="UC1727676.3.4" bus2="BT661031.3.4" linecode="50_2" length=0.006000000 units=km
New "Line.RBT_1727523" phases=4 bus1="UC1727523.1.2.3.4" bus2="BT267781.1.2.3.4" linecode="51_4" length=0.020000000 units=km
New "Line.RBT_1727535" phases=2 bus1="UC1727535.3.4" bus2="BT476311.3.4" linecode="50_2" length=0.002000000 units=km
New "Line.RBT_1727802" phases=2 bus1="UC1727802.1.4" bus2="BT661241.1.4" linecode="50_2" length=0.015000000 units=km
New "Line.RBT_1728108" phases=2 bus1="UC1728108.3.4" bus2="BT787871.3.4" linecode="50_2" length=0.023000000 units=km
New "Line.RBT_1727981" phases=2 bus1="UC1727981.1.4" bus2="BT606591.1.4" linecode="108_2" length=0.004000000 units=km
New "Line.RBT_1727978" phases=2 bus1="UC1727978.3.4" bus2="BT606561.3.4" linecode="50_2" length=0.011000000 units=km
New "Line.RBT_1727982" phases=2 bus1="UC1727982.3.4" bus2="BT606561.3.4" linecode="108_2" length=0.012000000 units=km
New "Line.RBT_1728110" phases=2 bus1="UC1728110.3.4" bus2="BT787871.3.4" linecode="50_2" length=0.024000000 units=km
New "Line.RBT_1727983" phases=2 bus1="UC1727983.2.4" bus2="BT446231.2.4" linecode="108_2" length=0.020000000 units=km
New "Line.RBT_1728011" phases=2 bus1="UC1728011.2.4" bus2="BT661241.2.4" linecode="50_2" length=0.014000000 units=km
New "Line.RBT_1727976" phases=3 bus1="UC1727976.2.3.4" bus2="BT581471.2.3.4" linecode="119_3" length=0.003000000 units=km
New "Line.RBT_1727975" phases=2 bus1="UC1727975.1.4" bus2="BT200961.1.4" linecode="50_2" length=0.005000000 units=km
New "Line.RBT_1727972" phases=2 bus1="UC1727972.3.4" bus2="BT267381.3.4" linecode="50_2" length=0.002000000 units=km
New "Line.RBT_1727702" phases=2 bus1="UC1727702.1.4" bus2="BT661241.1.4" linecode="108_2" length=0.014000000 units=km
New "Line.RBT_1727799" phases=2 bus1="UC1727799.1.4" bus2="BT218881.1.4" linecode="50_2" length=0.019000000 units=km
New "Line.RBT_1727690" phases=2 bus1="UC1727690.3.4" bus2="BT606551.3.4" linecode="108_2" length=0.012000000 units=km
New "Line.RBT_1727689" phases=2 bus1="UC1727689.2.4" bus2="BT255611.2.4" linecode="50_2" length=0.011000000 units=km
New "Line.RBT_1728034" phases=2 bus1="UC1728034.3.4" bus2="BT476301.3.4" linecode="50_2" length=0.009000000 units=km
New "Line.RBT_1727970" phases=2 bus1="UC1727970.2.4" bus2="ET17_3253.2.4" linecode="108_2" length=0.015000000 units=km
New "Line.RBT_1728035" phases=2 bus1="UC1728035.1.4" bus2="BT661131.1.4" linecode="105_2" length=0.005000000 units=km
New "Line.RBT_1728298" phases=2 bus1="UC1728298.3.4" bus2="BT651851.3.4" linecode="50_2" length=0.011230000 units=km
New "Line.RBT_1728027" phases=2 bus1="UC1728027.1.4" bus2="BT606551.1.4" linecode="50_2" length=0.013000000 units=km
New "Line.RBT_1727821" phases=2 bus1="UC1727821.1.4" bus2="BT701981.1.4" linecode="50_2" length=0.012000000 units=km
New "Line.RBT_1727687" phases=2 bus1="UC1727687.1.4" bus2="BT661011.1.4" linecode="108_2" length=0.018680000 units=km
New "Line.RBT_1727683" phases=2 bus1="UC1727683.2.4" bus2="BT267801.2.4" linecode="50_2" length=0.021000000 units=km
New "Line.RBT_1727692" phases=2 bus1="UC1727692.2.4" bus2="BT606551.2.4" linecode="50_2" length=0.009000000 units=km
New "Line.RBT_1728305" phases=2 bus1="UC1728305.3.4" bus2="BT215451.3.4" linecode="50_2" length=0.017000000 units=km
New "Line.RBT_1727681" phases=2 bus1="UC1727681.1.4" bus2="BT298533.1.4" linecode="108_2" length=0.019000000 units=km
New "Line.RBT_1727680" phases=4 bus1="UC1727680.1.2.3.4" bus2="BT298421.1.2.3.4" linecode="95_4" length=0.014000000 units=km
New "Line.RBT_1728118" phases=2 bus1="UC1728118.1.4" bus2="BT661291.1.4" linecode="108_2" length=0.024000000 units=km
New "Line.RBT_1727812" phases=2 bus1="UC1727812.3.4" bus2="BT362901.3.4" linecode="50_2" length=0.003000000 units=km
New "Line.RBT_1727809" phases=2 bus1="UC1727809.1.4" bus2="BT279661.1.4" linecode="108_2" length=0.003000000 units=km
New "Line.RBT_1728114" phases=2 bus1="UC1728114.1.4" bus2="ET17_2175.1.4" linecode="50_2" length=0.012510000 units=km
New "Line.RBT_1727817" phases=2 bus1="UC1727817.1.4" bus2="BT606601.1.4" linecode="108_2" length=0.010000000 units=km
New "Line.RBT_1726782" phases=2 bus1="UC1726782.1.4" bus2="BT476301.1.4" linecode="50_2" length=0.013000000 units=km
New "Line.RBT_1726801" phases=4 bus1="UC1726801.1.2.3.4" bus2="ET17_3943.1.2.3.4" linecode="51_4" length=0.021000000 units=km
New "Line.RBT_1726303" phases=2 bus1="UC1726303.1.4" bus2="BT810741.1.4" linecode="50_2" length=0.013000000 units=km
New "Line.RBT_1726134" phases=2 bus1="UC1726134.1.4" bus2="BT752743.1.4" linecode="50_2" length=0.003000000 units=km
New "Line.RBT_1726133" phases=2 bus1="UC1726133.2.4" bus2="BT476311.2.4" linecode="50_2" length=0.001000000 units=km
New "Line.RBT_1726586" phases=2 bus1="UC1726586.3.4" bus2="BT219551.3.4" linecode="50_2" length=0.007000000 units=km
New "Line.RBT_1726584" phases=2 bus1="UC1726584.2.4" bus2="BT297581.2.4" linecode="108_2" length=0.013000000 units=km
New "Line.RBT_1726304" phases=2 bus1="UC1726304.2.4" bus2="ET17_3253.2.4" linecode="105_2" length=0.023000000 units=km
New "Line.RBT_1726298" phases=2 bus1="UC1726298.2.4" bus2="BT476361.2.4" linecode="108_2" length=0.003000000 units=km
New "Line.RBT_1726803" phases=2 bus1="UC1726803.3.4" bus2="BT255531.3.4" linecode="108_2" length=0.011000000 units=km
New "Line.RBT_1727032" phases=2 bus1="UC1727032.2.4" bus2="BT362901.2.4" linecode="50_2" length=0.007000000 units=km
New "Line.RBT_1726861" phases=2 bus1="UC1726861.2.4" bus2="BT663941.2.4" linecode="50_2" length=0.002000000 units=km
New "Line.RBT_1727263" phases=2 bus1="UC1727263.2.4" bus2="BT663941.2.4" linecode="50_2" length=0.001000000 units=km
New "Line.RBT_1727008" phases=2 bus1="UC1727008.1.4" bus2="BT661331.1.4" linecode="108_2" length=0.009000000 units=km
New "Line.RBT_1727013" phases=2 bus1="UC1727013.2.4" bus2="BT661331.2.4" linecode="108_2" length=0.008000000 units=km
New "Line.RBT_1727009" phases=2 bus1="UC1727009.2.4" bus2="BT661331.2.4" linecode="108_2" length=0.007000000 units=km
New "Line.RBT_1727010" phases=2 bus1="UC1727010.2.4" bus2="BT661331.2.4" linecode="50_2" length=0.016000000 units=km
New "Line.RBT_1727002" phases=2 bus1="UC1727002.1.4" bus2="BT297551.1.4" linecode="108_2" length=0.002000000 units=km
New "Line.RBT_1726784" phases=2 bus1="UC1726784.2.4" bus2="BT273012.2.4" linecode="50_2" length=0.010000000 units=km
New "Line.RBT_1727012" phases=2 bus1="UC1727012.1.4" bus2="BT661331.1.4" linecode="108_2" length=0.007000000 units=km
New "Line.RBT_1727011" phases=2 bus1="UC1727011.3.4" bus2="BT661331.3.4" linecode="108_2" length=0.013000000 units=km
New "Line.RBT_1726793" phases=2 bus1="UC1726793.1.4" bus2="BT616601.1.4" linecode="50_2" length=0.006000000 units=km
New "Line.RBT_1726306" phases=4 bus1="UC1726306.1.2.3.4" bus2="BT798511.1.2.3.4" linecode="51_4" length=0.027000000 units=km
New "Line.RBT_1726307" phases=2 bus1="UC1726307.2.4" bus2="BT298501.2.4" linecode="50_2" length=0.002000000 units=km
New "Line.RBT_1726301" phases=2 bus1="UC1726301.1.4" bus2="ET17_3253.1.4" linecode="50_2" length=0.011000000 units=km
New "Line.RBT_3002410" phases=2 bus1="UC3002410.3.4" bus2="BT651881.3.4" linecode="50_2" length=0.001000000 units=km
New "Line.RBT_1726289" phases=2 bus1="UC1726289.1.4" bus2="BT219481.1.4" linecode="50_2" length=0.018060000 units=km
New "Line.RBT_1726293" phases=2 bus1="UC1726293.1.4" bus2="BT215421.1.4" linecode="108_2" length=0.025000000 units=km
New "Line.RBT_1723968" phases=2 bus1="UC1723968.3.4" bus2="BT362901.3.4" linecode="108_2" length=0.030000000 units=km
New "Line.RBT_1723969" phases=2 bus1="UC1723969.1.4" bus2="BT329182.1.4" linecode="50_2" length=0.015380000 units=km
New "Line.RBT_1705124" phases=2 bus1="UC1705124.1.4" bus2="BT250911.1.4" linecode="50_2" length=0.007000000 units=km
New "Line.RBT_1720070" phases=4 bus1="UC1720070.1.2.3.4" bus2="BT267451.1.2.3.4" linecode="143_4" length=0.009000000 units=km
New "Line.RBT_1720071" phases=4 bus1="UC1720071.1.2.3.4" bus2="BT279382.1.2.3.4" linecode="51_4" length=0.005000000 units=km
New "Line.RBT_1720072" phases=4 bus1="UC1720072.1.2.3.4" bus2="BT272901.1.2.3.4" linecode="51_4" length=0.023000000 units=km
New "Line.RBT_1723908" phases=2 bus1="UC1723908.1.4" bus2="BT661011.1.4" linecode="108_2" length=0.004000000 units=km
New "Line.RBT_1723909" phases=2 bus1="UC1723909.1.4" bus2="BT661191.1.4" linecode="50_2" length=0.015000000 units=km
New "Line.RBT_1725820" phases=4 bus1="UC1725820.1.2.3.4" bus2="BT218861.1.2.3.4" linecode="51_4" length=0.006000000 units=km
New "Line.RBT_1725824" phases=2 bus1="UC1725824.2.4" bus2="BT273012.2.4" linecode="108_2" length=0.010000000 units=km
New "Line.RBT_1726149" phases=2 bus1="UC1726149.1.4" bus2="BT200921.1.4" linecode="108_2" length=0.004000000 units=km
New "Line.RBT_1705118" phases=2 bus1="UC1705118.2.4" bus2="BT218841.2.4" linecode="50_2" length=0.010000000 units=km
New "Line.RBT_1705121" phases=2 bus1="UC1705121.2.4" bus2="BT255581.2.4" linecode="50_2" length=0.005000000 units=km
New "Line.RBT_1713666" phases=2 bus1="UC1713666.1.4" bus2="BT200971.1.4" linecode="50_2" length=0.008000000 units=km
New "Line.RBT_1713667" phases=2 bus1="UC1713667.2.4" bus2="BT200972.2.4" linecode="50_2" length=0.005000000 units=km
New "Line.RBT_1720066" phases=2 bus1="UC1720066.3.4" bus2="BT297641.3.4" linecode="50_2" length=0.005000000 units=km
New "Line.RBT_1720069" phases=4 bus1="UC1720069.1.2.3.4" bus2="BT360491.1.2.3.4" linecode="51_4" length=0.022000000 units=km
New "Line.RBT_1725814" phases=4 bus1="UC1725814.1.2.3.4" bus2="ET17_4754.1.2.3.4" linecode="51_4" length=0.012000000 units=km
New "Line.RBT_1713658" phases=4 bus1="UC1713658.1.2.3.4" bus2="BT219521.1.2.3.4" linecode="51_4" length=0.008000000 units=km
New "Line.RBT_1713660" phases=4 bus1="UC1713660.1.2.3.4" bus2="BT297521.1.2.3.4" linecode="51_4" length=0.003000000 units=km
New "Line.RBT_1713662" phases=4 bus1="UC1713662.1.2.3.4" bus2="BT272931.1.2.3.4" linecode="51_4" length=0.001000000 units=km
New "Line.RBT_1719208" phases=2 bus1="UC1719208.3.4" bus2="BT272891.3.4" linecode="108_2" length=0.005000000 units=km
New "Line.RBT_1719209" phases=2 bus1="UC1719209.2.4" bus2="BT272891.2.4" linecode="108_2" length=0.004000000 units=km
New "Line.RBT_1719210" phases=2 bus1="UC1719210.1.4" bus2="BT218881.1.4" linecode="50_2" length=0.025000000 units=km
New "Line.RBT_1719213" phases=2 bus1="UC1719213.3.4" bus2="BT663941.3.4" linecode="50_2" length=0.013000000 units=km
New "Line.RBT_1719214" phases=2 bus1="UC1719214.2.4" bus2="BT298601.2.4" linecode="50_2" length=0.024000000 units=km
New "Line.RBT_1722284" phases=4 bus1="UC1722284.1.2.3.4" bus2="ET17_2940.1.2.3.4" linecode="51_4" length=0.015150000 units=km
New "Line.RBT_1725793" phases=2 bus1="UC1725793.1.4" bus2="BT661291.1.4" linecode="108_2" length=0.013000000 units=km
New "Line.RBT_1720059" phases=2 bus1="UC1720059.1.4" bus2="BT255603.1.4" linecode="108_2" length=0.016000000 units=km
New "Line.RBT_1720065" phases=2 bus1="UC1720065.1.4" bus2="BT219611.1.4" linecode="50_2" length=0.016000000 units=km
New "Line.RBT_1723712" phases=2 bus1="UC1723712.1.4" bus2="BT267781.1.4" linecode="108_2" length=0.026000000 units=km
New "Line.RBT_1723720" phases=4 bus1="UC1723720.1.2.3.4" bus2="ET17_3181.1.2.3.4" linecode="51_4" length=0.028000000 units=km
New "Line.RBT_1719004" phases=2 bus1="UC1719004.3.4" bus2="BT278641.3.4" linecode="50_2" length=0.018000000 units=km
New "Line.RBT_1721822" phases=2 bus1="UC1721822.1.4" bus2="BT297731.1.4" linecode="105_P_2" length=0.024000000 units=km
New "Line.RBT_1722087" phases=4 bus1="UC1722087.1.2.3.4" bus2="BT279411.1.2.3.4" linecode="58_4" length=0.030000000 units=km
New "Line.RBT_1722094" phases=2 bus1="UC1722094.1.4" bus2="BT279431.1.4" linecode="108_2" length=0.013000000 units=km
New "Line.RBT_1710591" phases=2 bus1="UC1710591.2.4" bus2="BT279361.2.4" linecode="105_2" length=0.005000000 units=km
New "Line.RBT_1710593" phases=3 bus1="UC1710593.3.1.4" bus2="BT255603.3.1.4" linecode="83_3" length=0.015000000 units=km
New "Line.RBT_1720055" phases=2 bus1="UC1720055.1.4" bus2="ET17_28.1.4" linecode="108_2" length=0.029000000 units=km
New "Line.RBT_1719206" phases=2 bus1="UC1719206.2.4" bus2="BT272891.2.4" linecode="108_2" length=0.007000000 units=km
New "Line.RBT_1710581" phases=2 bus1="UC1710581.1.4" bus2="BT268261.1.4" linecode="50_2" length=0.013000000 units=km
New "Line.RBT_1725809" phases=3 bus1="UC1725809.1.2.4" bus2="BT219511.1.2.4" linecode="83_3" length=0.020000000 units=km
New "Line.RBT_1725810" phases=2 bus1="UC1725810.3.4" bus2="BT476341.3.4" linecode="50_2" length=0.003000000 units=km
New "Line.RBT_1718134" phases=2 bus1="UC1718134.1.4" bus2="BT255511.1.4" linecode="105_2" length=0.005000000 units=km
New "Line.RBT_1718135" phases=2 bus1="UC1718135.3.4" bus2="BT200931.3.4" linecode="50_2" length=0.008000000 units=km
New "Line.RBT_1718150" phases=4 bus1="UC1718150.1.2.3.4" bus2="BT810741.1.2.3.4" linecode="51_4" length=0.012000000 units=km
New "Line.RBT_1720050" phases=2 bus1="UC1720050.2.4" bus2="BT581471.2.4" linecode="105_2" length=0.025000000 units=km
New "Line.RBT_1723261" phases=2 bus1="UC1723261.2.4" bus2="BT478941.2.4" linecode="50_2" length=0.020000000 units=km
New "Line.RBT_1723262" phases=4 bus1="UC1723262.1.2.3.4" bus2="BT273021.1.2.3.4" linecode="51_4" length=0.022000000 units=km
New "Line.RBT_1723264" phases=2 bus1="UC1723264.1.4" bus2="BT255631.1.4" linecode="50_2" length=0.005000000 units=km
New "Line.RBT_1725701" phases=4 bus1="UC1725701.1.2.3.4" bus2="BT255481.1.2.3.4" linecode="51_4" length=0.010550000 units=km
New "Line.RBT_1705075" phases=4 bus1="UC1705075.1.2.3.4" bus2="ET17_2121.1.2.3.4" linecode="51_4" length=0.020000000 units=km
New "Line.RBT_1705079" phases=2 bus1="UC1705079.1.4" bus2="BT702001.1.4" linecode="50_2" length=0.015000000 units=km
New "Line.RBT_1705080" phases=4 bus1="UC1705080.1.2.3.4" bus2="BT278551.1.2.3.4" linecode="109_4" length=0.019000000 units=km
New "Line.RBT_1705098" phases=2 bus1="UC1705098.1.4" bus2="BT200961.1.4" linecode="50_2" length=0.020000000 units=km
New "Line.RBT_1705099" phases=2 bus1="UC1705099.2.4" bus2="BT200931.2.4" linecode="50_2" length=0.014000000 units=km
New "Line.RBT_1710193" phases=2 bus1="UC1710193.2.4" bus2="BT219511.2.4" linecode="50_2" length=0.029160000 units=km
New "Line.RBT_1710226" phases=2 bus1="UC1710226.1.4" bus2="BT219511.1.4" linecode="50_2" length=0.012000000 units=km
New "Line.RBT_1719296" phases=2 bus1="UC1719296.1.4" bus2="BT219511.1.4" linecode="50_2" length=0.013000000 units=km
New "Line.RBT_1725497" phases=2 bus1="UC1725497.3.4" bus2="BT273012.3.4" linecode="50_2" length=0.008000000 units=km
New "Line.RBT_1725498" phases=2 bus1="UC1725498.2.4" bus2="BT297561.2.4" linecode="50_2" length=0.008000000 units=km
New "Line.RBT_1709857" phases=2 bus1="UC1709857.3.4" bus2="ET17_6343.3.4" linecode="108_2" length=0.034000000 units=km
New "Line.RBT_1709865" phases=2 bus1="UC1709865.3.4" bus2="BT292122.3.4" linecode="50_2" length=0.005000000 units=km
New "Line.RBT_1709867" phases=2 bus1="UC1709867.3.4" bus2="BT255581.3.4" linecode="50_2" length=0.014000000 units=km
New "Line.RBT_1718129" phases=4 bus1="UC1718129.1.2.3.4" bus2="ET17_2222.1.2.3.4" linecode="51_4" length=0.011090000 units=km
New "Line.RBT_1718132" phases=2 bus1="UC1718132.1.4" bus2="BT702001.1.4" linecode="50_2" length=0.024410000 units=km
New "Line.RBT_1721284" phases=2 bus1="UC1721284.2.4" bus2="BT298391.2.4" linecode="50_2" length=0.016000000 units=km
New "Line.RBT_1721285" phases=2 bus1="UC1721285.3.4" bus2="BT255571.3.4" linecode="50_2" length=0.015000000 units=km
New "Line.RBT_1721286" phases=2 bus1="UC1721286.2.4" bus2="BT215451.2.4" linecode="105_2" length=0.010000000 units=km
New "Line.RBT_1721814" phases=2 bus1="UC1721814.2.4" bus2="BT297731.2.4" linecode="108_2" length=0.026000000 units=km
New "Line.RBT_1725349" phases=2 bus1="UC1725349.3.4" bus2="BT784661.3.4" linecode="108_2" length=0.020000000 units=km
New "Line.RBT_1722911" phases=2 bus1="UC1722911.1.4" bus2="BT267781.1.4" linecode="108_2" length=0.026000000 units=km
New "Line.RBT_1722912" phases=4 bus1="UC1722912.1.2.3.4" bus2="BT255462.1.2.3.4" linecode="51_4" length=0.004000000 units=km
New "Line.RBT_1722913" phases=2 bus1="UC1722913.1.4" bus2="BT661191.1.4" linecode="50_2" length=0.016000000 units=km
New "Line.RBT_1723055" phases=4 bus1="UC1723055.1.2.3.4" bus2="BT255521.1.2.3.4" linecode="51_4" length=0.013010000 units=km
New "Line.RBT_1723255" phases=2 bus1="UC1723255.3.4" bus2="BT273021.3.4" linecode="108_2" length=0.020000000 units=km
New "Line.RBT_1721216" phases=4 bus1="UC1721216.1.2.3.4" bus2="ET17_2175.1.2.3.4" linecode="51_4" length=0.014000000 units=km
New "Line.RBT_1721217" phases=2 bus1="UC1721217.1.4" bus2="BT255611.1.4" linecode="50_2" length=0.020000000 units=km
New "Line.RBT_1721277" phases=2 bus1="UC1721277.2.4" bus2="BT292112.2.4" linecode="50_2" length=0.012490000 units=km
New "Line.RBT_1721280" phases=2 bus1="UC1721280.1.4" bus2="ET17_2649.1.4" linecode="107_2" length=0.021020000 units=km
New "Line.RBT_1721283" phases=2 bus1="UC1721283.2.4" bus2="BT298441.2.4" linecode="50_2" length=0.024000000 units=km
New "Line.RBT_1725324" phases=2 bus1="UC1725324.3.4" bus2="BT297611.3.4" linecode="108_2" length=0.003000000 units=km
New "Line.RBT_1719294" phases=4 bus1="UC1719294.1.2.3.4" bus2="ET17_2390.1.2.3.4" linecode="51_4" length=0.014380000 units=km
New "Line.RBT_1718113" phases=4 bus1="UC1718113.1.2.3.4" bus2="BT218901.1.2.3.4" linecode="109_4" length=0.023000000 units=km
New "Line.RBT_1718122" phases=2 bus1="UC1718122.3.4" bus2="BT292122.3.4" linecode="50_2" length=0.002000000 units=km
New "Line.RBT_1718125" phases=2 bus1="UC1718125.1.4" bus2="BT265561.1.4" linecode="50_2" length=0.031450000 units=km
New "Line.RBT_1718128" phases=4 bus1="UC1718128.1.2.3.4" bus2="BT219481.1.2.3.4" linecode="51_4" length=0.010870000 units=km
New "Line.RBT_1709833" phases=4 bus1="UC1709833.1.2.3.4" bus2="BT807801.1.2.3.4" linecode="51_4" length=0.007000000 units=km
New "Line.RBT_1709853" phases=2 bus1="UC1709853.3.4" bus2="BT267391.3.4" linecode="50_2" length=0.022000000 units=km
New "Line.RBT_1719284" phases=2 bus1="UC1719284.1.4" bus2="BT250931.1.4" linecode="50_2" length=0.008000000 units=km
New "Line.RBT_1725484" phases=3 bus1="UC1725484.1.2.4" bus2="ET17_28.1.2.4" linecode="83_3" length=0.027650000 units=km
New "Line.RBT_1725485" phases=2 bus1="UC1725485.1.4" bus2="BT297611.1.4" linecode="50_2" length=0.010000000 units=km
New "Line.RBT_1705071" phases=4 bus1="UC1705071.1.2.3.4" bus2="BT242452.1.2.3.4" linecode="51_4" length=0.012000000 units=km
New "Line.RBT_1705072" phases=3 bus1="UC1705072.3.1.4" bus2="BT255481.3.1.4" linecode="83_3" length=0.016000000 units=km
New "Line.RBT_1724636" phases=2 bus1="UC1724636.2.4" bus2="ET17_4754.2.4" linecode="108_2" length=0.011000000 units=km
New "Line.RBT_1717337" phases=2 bus1="UC1717337.1.4" bus2="ET17_4754.1.4" linecode="108_2" length=0.028000000 units=km
New "Line.RBT_1722732" phases=2 bus1="UC1722732.1.4" bus2="BT460401.1.4" linecode="50_2" length=0.034000000 units=km
New "Line.RBT_1722733" phases=4 bus1="UC1722733.1.2.3.4" bus2="BT219481.1.2.3.4" linecode="51_4" length=0.018000000 units=km
New "Line.RBT_1722907" phases=2 bus1="UC1722907.2.4" bus2="BT661291.2.4" linecode="50_2" length=0.014000000 units=km
New "Line.RBT_1722908" phases=4 bus1="UC1722908.1.2.3.4" bus2="BT478211.1.2.3.4" linecode="51_4" length=0.007000000 units=km
New "Line.RBT_1705049" phases=2 bus1="UC1705049.3.4" bus2="BT787631.3.4" linecode="50_2" length=0.025000000 units=km
New "Line.RBT_1705056" phases=2 bus1="UC1705056.2.4" bus2="BT255611.2.4" linecode="108_2" length=0.008890000 units=km
New "Line.RBT_1717311" phases=4 bus1="UC1717311.1.2.3.4" bus2="BT200972.1.2.3.4" linecode="51_4" length=0.005000000 units=km
New "Line.RBT_1717320" phases=4 bus1="UC1717320.1.2.3.4" bus2="BT267451.1.2.3.4" linecode="51_4" length=0.021000000 units=km
New "Line.RBT_1723986" phases=2 bus1="UC1723986.1.4" bus2="BT619181.1.4" linecode="50_2" length=0.013000000 units=km
New "Line.RBT_1724585" phases=2 bus1="UC1724585.2.4" bus2="BT255571.2.4" linecode="50_2" length=0.004000000 units=km
New "Line.RBT_1724588" phases=2 bus1="UC1724588.2.4" bus2="BT200961.2.4" linecode="50_2" length=0.013000000 units=km
New "Line.RBT_1724599" phases=2 bus1="UC1724599.2.4" bus2="BT267381.2.4" linecode="108_2" length=0.002000000 units=km
New "Line.RBT_1722724" phases=2 bus1="UC1722724.2.4" bus2="BT278591.2.4" linecode="105_2" length=0.015000000 units=km
New "Line.RBT_1714256" phases=2 bus1="UC1714256.3.4" bus2="BT200931.3.4" linecode="50_2" length=0.017000000 units=km
New "Line.RBT_1720195" phases=2 bus1="UC1720195.3.4" bus2="BT298421.3.4" linecode="50_2" length=0.032700000 units=km
New "Line.RBT_1720339" phases=2 bus1="UC1720339.1.4" bus2="BT272981.1.4" linecode="50_2" length=0.006000000 units=km
New "Line.RBT_1725313" phases=4 bus1="UC1725313.1.2.3.4" bus2="BT279402.1.2.3.4" linecode="51_4" length=0.008000000 units=km
New "Line.RBT_1709717" phases=2 bus1="UC1709717.3.4" bus2="BT279411.3.4" linecode="108_2" length=0.003000000 units=km
New "Line.RBT_1719256" phases=2 bus1="UC1719256.1.4" bus2="BT219511.1.4" linecode="108_2" length=0.013000000 units=km
New "Line.RBT_1719258" phases=2 bus1="UC1719258.2.4" bus2="BT476301.2.4" linecode="50_2" length=0.003000000 units=km
...
